Version 4
SHEET 1 1196 1096
WIRE -160 -128 -432 -128
WIRE -64 -128 -160 -128
WIRE 80 -128 -64 -128
WIRE 256 -128 160 -128
WIRE 368 -128 256 -128
WIRE 544 -128 432 -128
WIRE 688 -128 544 -128
WIRE 704 -128 688 -128
WIRE 704 -64 704 -128
WIRE 832 -64 768 -64
WIRE 944 -64 896 -64
WIRE 1056 -64 1008 -64
WIRE -64 0 -64 -128
WIRE 1056 16 1056 0
WIRE 1056 16 928 16
WIRE 1056 32 1056 16
WIRE 256 48 256 -128
WIRE 720 64 672 64
WIRE 928 64 928 16
WIRE 720 80 720 64
WIRE 880 80 720 80
WIRE 544 96 544 -128
WIRE 1056 128 1056 96
WIRE 64 144 16 144
WIRE 208 144 208 128
WIRE 208 144 144 144
WIRE 736 144 672 144
WIRE 880 144 880 128
WIRE 880 144 736 144
WIRE 256 176 256 144
WIRE 256 176 144 176
WIRE 256 208 256 176
WIRE 544 224 544 160
WIRE 736 224 736 144
WIRE 736 224 544 224
WIRE 928 224 928 144
WIRE 1056 224 1056 192
WIRE 1056 224 928 224
WIRE -64 288 -64 80
WIRE 256 288 -64 288
WIRE 544 304 544 224
WIRE 736 304 544 304
WIRE 928 304 816 304
WIRE 1056 304 1056 224
WIRE 1056 304 928 304
WIRE 256 320 256 288
WIRE 544 320 544 304
WIRE 544 320 256 320
WIRE 256 352 256 320
WIRE -880 480 -976 480
WIRE -688 480 -816 480
WIRE -336 480 -688 480
WIRE -144 480 -256 480
WIRE 368 512 368 496
WIRE 464 512 368 512
WIRE 480 512 464 512
WIRE -432 528 -432 -128
WIRE 368 528 368 512
WIRE -688 592 -688 480
WIRE -592 592 -688 592
WIRE 16 624 16 144
WIRE 16 624 -272 624
WIRE -976 656 -976 560
WIRE -592 656 -976 656
WIRE -592 720 -976 720
WIRE -96 752 -272 752
WIRE 144 752 144 176
WIRE 144 752 -96 752
WIRE -976 784 -976 720
WIRE -592 784 -816 784
WIRE 928 816 928 304
WIRE 928 816 160 816
WIRE -144 832 -144 480
WIRE 16 832 -144 832
WIRE 96 832 16 832
WIRE 192 848 160 848
WIRE -816 864 -816 784
WIRE -816 864 -976 864
WIRE -432 928 -432 848
WIRE 16 960 16 832
WIRE 64 960 16 960
WIRE 192 960 192 848
WIRE 192 960 144 960
WIRE 192 976 192 960
FLAG 256 352 0
FLAG 192 1056 0
FLAG -816 928 0
FLAG -432 928 0
FLAG -160 -128 Vcc
FLAG -96 752 Vis
FLAG -688 480 VFB
FLAG -976 656 Vcomp
FLAG 688 -128 Vout
FLAG 464 512 0
FLAG 128 864 v+
FLAG 368 416 v+
FLAG 128 800 v-
FLAG 368 608 v-
SYMBOL ind 64 -112 R270
WINDOW 0 32 56 VTop 2
WINDOW 3 5 56 VBottom 2
SYMATTR InstName L1
SYMATTR Value 150µ
SYMBOL diode 368 -112 R270
WINDOW 0 32 32 VTop 2
WINDOW 3 0 32 VBottom 2
SYMATTR InstName D1
SYMATTR Value MUR460
SYMBOL nmos 208 48 R0
SYMATTR InstName M1
SYMATTR Value IRF530
SYMBOL res 240 192 R0
SYMATTR InstName R1
SYMATTR Value 0.1
SYMBOL cap 528 96 R0
SYMATTR InstName C1
SYMATTR Value 470µ
SYMBOL LED 704 -48 R270
WINDOW 0 72 32 VTop 2
WINDOW 3 0 32 VBottom 2
SYMATTR InstName D2
SYMATTR Value LUW-W5AP
SYMBOL sw 928 48 R0
SYMATTR InstName S1
SYMATTR Value MYSW
SYMBOL voltage 672 160 R180
WINDOW 0 24 96 Left 2
WINDOW 3 -223 133 Left 2
WINDOW 123 0 0 Left 2
WINDOW 39 0 0 Left 2
SYMATTR InstName V2
SYMATTR Value PULSE(0 5 5m 10n 10n 10m 20m 10)
SYMBOL res 832 288 R90
WINDOW 0 0 56 VBottom 2
WINDOW 3 32 56 VTop 2
SYMATTR InstName R2
SYMATTR Value 0.1
SYMBOL res 160 944 R90
WINDOW 0 0 56 VBottom 2
WINDOW 3 32 56 VTop 2
SYMATTR InstName R3
SYMATTR Value 11.5k
SYMBOL res 208 1072 R180
WINDOW 0 36 76 Left 2
WINDOW 3 36 40 Left 2
SYMATTR InstName R4
SYMATTR Value 1k
SYMBOL res 160 128 R90
WINDOW 0 0 56 VBottom 2
WINDOW 3 32 56 VTop 2
SYMATTR InstName R5
SYMATTR Value 22
SYMBOL PowerProducts\\LT1241 -432 688 R0
SYMATTR InstName U2
SYMBOL cap -816 464 R90
WINDOW 0 0 32 VBottom 2
WINDOW 3 32 32 VTop 2
SYMATTR InstName C2
SYMATTR Value 100n
SYMBOL res -992 464 R0
SYMATTR InstName R6
SYMATTR Value 10k
SYMBOL res -992 768 R0
SYMATTR InstName R7
SYMATTR Value 7k
SYMBOL cap -832 864 R0
SYMATTR InstName C3
SYMATTR Value 1n
SYMBOL LED 832 -48 R270
WINDOW 0 72 32 VTop 2
WINDOW 3 0 32 VBottom 2
SYMATTR InstName D3
SYMATTR Value LUW-W5AP
SYMBOL LED 944 -48 R270
WINDOW 0 72 32 VTop 2
WINDOW 3 0 32 VBottom 2
SYMATTR InstName D4
SYMATTR Value LUW-W5AP
SYMBOL LED 1040 -64 R0
SYMATTR InstName D5
SYMATTR Value LUW-W5AP
SYMBOL LED 1040 32 R0
SYMATTR InstName D6
SYMATTR Value LUW-W5AP
SYMBOL LED 1040 128 R0
SYMATTR InstName D7
SYMATTR Value LUW-W5AP
SYMBOL res -240 464 R90
WINDOW 0 0 56 VBottom 2
WINDOW 3 32 56 VTop 2
SYMATTR InstName R8
SYMATTR Value 10k
SYMBOL voltage -64 -16 R0
WINDOW 123 0 0 Left 2
WINDOW 39 0 0 Left 2
SYMATTR InstName V1
SYMATTR Value 12
SYMBOL voltage 368 400 R0
WINDOW 123 0 0 Left 2
WINDOW 39 0 0 Left 2
SYMATTR InstName V4
SYMATTR Value 15
SYMBOL voltage 368 512 R0
WINDOW 123 0 0 Left 2
WINDOW 39 0 0 Left 2
SYMATTR InstName V5
SYMATTR Value 15
SYMBOL Opamps\\UniversalOpamp2 128 832 R180
SYMATTR InstName U1
SYMATTR Value2 Avol=100k GBW=10Meg Slew=100Meg
TEXT -992 1080 Left 2 !.tran 0 50m 0 500u
TEXT 16 1080 Left 2 !.lib opamp.sub
TEXT 432 880 Left 2 !.model MYSW SW(Ron=0.01 Roff=10MEG Vt=1 Vh=-0.4)
TEXT 448 696 Left 2 !.ic I(L1)=4.2 V(Vout)=21 V(Vcomp)=2.4
