Version 4
SHEET 1 1228 680
WIRE 112 128 64 128
WIRE 384 128 112 128
WIRE 576 144 480 144
WIRE 112 160 64 160
WIRE 384 160 112 160
WIRE 512 176 480 176
WIRE 544 176 512 176
WIRE 576 176 544 176
WIRE 112 192 64 192
WIRE 384 192 112 192
WIRE 432 224 432 192
WIRE 544 224 544 176
WIRE -64 240 -160 240
WIRE -32 240 -64 240
WIRE -16 240 -16 208
WIRE -16 240 -32 240
WIRE 16 240 16 208
WIRE 16 272 16 240
WIRE -32 288 -32 240
WIRE 288 304 240 304
WIRE 368 304 352 304
WIRE -32 352 -32 336
WIRE -32 352 -80 352
WIRE 512 368 512 176
WIRE -80 384 -80 352
WIRE 240 384 240 304
WIRE 272 384 240 384
WIRE 368 384 368 304
WIRE 368 384 352 384
WIRE 464 384 368 384
WIRE 464 448 464 384
WIRE 464 448 384 448
WIRE 512 448 464 448
WIRE -160 464 -160 240
WIRE 240 464 240 384
WIRE 240 464 -160 464
WIRE 320 464 240 464
WIRE 448 480 384 480
WIRE 448 592 448 560
FLAG -32 160 0
FLAG 544 304 0
FLAG 432 288 0
FLAG 112 128 a
FLAG 112 160 b
FLAG 112 192 c
FLAG 576 144 torque
FLAG 576 176 angular_speed
FLAG 16 352 0
FLAG -64 240 FREQ
FLAG 16 240 V
FLAG -80 384 0
FLAG 448 592 0
SYMBOL 3ph_gen 16 160 R0
SYMATTR InstName U1
SYMATTR Value sym=1 f=50 amp=380 phi=0 Ro=0.1 N=2k+1
SYMBOL 3ph_ACMotor 432 160 R0
WINDOW 123 193 -81 Left 2
WINDOW 40 -525 -79 Left 2
SYMATTR Value2 Zp=2 J=20m DY=1
SYMATTR InstName U2
SYMBOL cap 416 224 R0
WINDOW 123 186 120 Left 2
WINDOW 39 282 120 Left 2
SYMATTR Value2 Rser=1
SYMATTR SpiceLine Rpar=1e6
SYMATTR InstName C1
SYMATTR Value 1n
SYMBOL bi 544 224 R0
WINDOW 3 45 63 Left 2
SYMATTR Value I=K*(tanh(100*time-255)+tanh(450-100*time))
SYMATTR InstName B1
SYMBOL e 16 256 R0
WINDOW 3 40 53 Left 2
SYMATTR Value {V/f}
SYMATTR InstName E1
SYMBOL Opamps\\opamp 352 400 M0
SYMATTR InstName U3
SYMBOL voltage 448 464 R0
WINDOW 123 0 0 Left 0
WINDOW 39 0 0 Left 0
SYMATTR InstName V1
SYMATTR Value PWL({t1} {f/k} {t2} {f})
SYMBOL res 368 368 R90
WINDOW 0 0 56 VBottom 2
WINDOW 3 28 56 VBottom 2
SYMATTR InstName R1
SYMATTR Value 500k
SYMBOL res 496 352 R0
WINDOW 3 36 68 Left 2
SYMATTR InstName R2
SYMATTR Value 500k
SYMBOL cap 352 288 R90
WINDOW 0 0 32 VBottom 2
WINDOW 3 28 32 VBottom 2
SYMATTR InstName C2
SYMATTR Value 4.7µ
TEXT 776 224 Left 2 !.tran 7
TEXT 776 152 Left 2 !.parma V=380 f=50 k=10\n+ t1=1/f t2=20/f
TEXT 208 520 Left 2 !.lib opamp.sub
TEXT 800 440 Left 2 !.step param K 9 10 0.2
