Version 4
SHEET 1 1768 680
WIRE 1136 -624 800 -624
WIRE 1536 -624 1136 -624
WIRE 1136 -528 1136 -624
WIRE 1248 -528 1136 -528
WIRE 48 -512 -64 -512
WIRE 192 -512 112 -512
WIRE 464 -512 192 -512
WIRE 1136 -512 1136 -528
WIRE 1248 -496 1248 -528
WIRE 1536 -480 1536 -624
WIRE 464 -448 464 -512
WIRE 1088 -432 1040 -432
WIRE 192 -416 192 -512
WIRE 1136 -384 1136 -416
WIRE 1248 -384 1248 -432
WIRE 1248 -384 1136 -384
WIRE -64 -368 -64 -512
WIRE -64 -368 -496 -368
WIRE -16 -368 -64 -368
WIRE -16 -352 -16 -368
WIRE 16 -352 -16 -352
WIRE 64 -352 16 -352
WIRE 544 -352 320 -352
WIRE -128 -336 -368 -336
WIRE 1136 -336 1136 -384
WIRE 1216 -336 1136 -336
WIRE 1344 -336 1296 -336
WIRE 1536 -336 1536 -416
WIRE 1536 -336 1424 -336
WIRE 1616 -336 1536 -336
WIRE 800 -320 800 -624
WIRE -496 -304 -496 -368
WIRE -368 -288 -368 -336
WIRE 1136 -288 1136 -336
WIRE 1248 -288 1136 -288
WIRE -128 -272 -128 -336
WIRE -16 -272 -128 -272
WIRE 64 -272 -16 -272
WIRE 464 -272 464 -384
WIRE 464 -272 320 -272
WIRE 576 -272 464 -272
WIRE 608 -272 576 -272
WIRE 1136 -272 1136 -288
WIRE 1248 -256 1248 -288
WIRE 1536 -256 1536 -336
WIRE 64 -192 -32 -192
WIRE 544 -192 320 -192
WIRE 1088 -192 1056 -192
WIRE 1136 -160 1136 -176
WIRE 1248 -160 1248 -192
WIRE 1248 -160 1136 -160
WIRE -32 -128 -32 -192
WIRE -32 -128 -160 -128
WIRE -496 -112 -496 -224
WIRE -368 -112 -368 -208
WIRE -368 -112 -496 -112
WIRE 192 -80 192 -128
WIRE 800 -80 800 -240
WIRE 1136 -80 1136 -160
WIRE 1136 -80 800 -80
WIRE 1536 -80 1536 -192
WIRE 1536 -80 1136 -80
WIRE -368 -64 -368 -112
WIRE 1136 -48 1136 -80
WIRE -160 0 -160 -128
WIRE -160 112 -160 80
FLAG 192 -80 0
FLAG -160 112 0
FLAG -368 -64 0
FLAG 16 -352 Vcc
FLAG -16 -272 QAc+
FLAG -32 -128 QAc-
FLAG 544 -352 QA+
FLAG 544 -192 QA-
FLAG 576 -272 A
FLAG 1040 -432 QA+
FLAG 1056 -192 QA-
FLAG 1136 -336 A
FLAG 1136 -48 0
FLAG 1536 -336 B
SYMBOL PowerProducts\\LTC4446 192 -272 R0
SYMATTR InstName U1
SYMBOL voltage 800 -336 R0
WINDOW 123 0 0 Left 0
WINDOW 39 0 0 Left 0
SYMATTR InstName V1
SYMATTR Value 100
SYMBOL voltage -368 -304 R0
WINDOW 3 -67 96 Left 2
WINDOW 123 0 0 Left 0
WINDOW 39 0 0 Left 0
SYMATTR Value PULSE(0 5 0 100n 10n 9.9u 20u)
SYMATTR InstName V2
SYMBOL voltage -496 -320 R0
WINDOW 123 0 0 Left 0
WINDOW 39 0 0 Left 0
SYMATTR InstName V3
SYMATTR Value 15
SYMBOL voltage -160 -16 R0
WINDOW 123 0 0 Left 0
WINDOW 39 0 0 Left 0
SYMATTR InstName V4
SYMATTR Value PULSE(0 5 10u 100n 10n 9.9u 20u)
SYMBOL diode 48 -496 R270
WINDOW 0 32 32 VTop 2
WINDOW 3 0 32 VBottom 2
SYMATTR InstName D1
SYMATTR Value RFN1L6S
SYMBOL cap 448 -448 R0
SYMATTR InstName C1
SYMATTR Value 10µ
SYMBOL nmos 1088 -512 R0
WINDOW 3 -51 108 Left 2
SYMATTR Value SPA11N60C3
SYMATTR InstName M1
SYMBOL nmos 1088 -272 R0
WINDOW 3 -46 147 Left 2
SYMATTR Value SPA11N60C3
SYMATTR InstName M2
SYMBOL ind 1312 -352 R90
WINDOW 0 5 56 VBottom 2
WINDOW 3 32 56 VTop 2
SYMATTR InstName L1
SYMATTR Value 1m
SYMBOL res 1440 -352 R90
WINDOW 0 0 56 VBottom 2
WINDOW 3 32 56 VTop 2
SYMATTR InstName R1
SYMATTR Value 20
SYMBOL cap 1520 -256 R0
SYMATTR InstName C2
SYMATTR Value 47µ
SYMBOL cap 1520 -480 R0
SYMATTR InstName C3
SYMATTR Value 47µ
SYMBOL diode 1264 -192 R180
WINDOW 0 24 64 Left 2
WINDOW 3 24 0 Left 2
SYMATTR InstName D2
SYMBOL diode 1264 -432 R180
WINDOW 0 24 64 Left 2
WINDOW 3 24 0 Left 2
SYMATTR InstName D3
TEXT 768 32 Left 2 !.tran 25m
