Version 4
SHEET 1 1768 680
WIRE 1136 -624 800 -624
WIRE 1536 -624 1136 -624
WIRE 1136 -528 1136 -624
WIRE 1248 -528 1136 -528
WIRE 1136 -512 1136 -528
WIRE 1248 -496 1248 -528
WIRE 1536 -480 1536 -624
WIRE 1088 -432 1040 -432
WIRE 1136 -384 1136 -416
WIRE 1248 -384 1248 -432
WIRE 1248 -384 1136 -384
WIRE 1136 -336 1136 -384
WIRE 1216 -336 1136 -336
WIRE 1344 -336 1296 -336
WIRE 1536 -336 1536 -416
WIRE 1536 -336 1424 -336
WIRE 1616 -336 1536 -336
WIRE 800 -320 800 -624
WIRE 1136 -288 1136 -336
WIRE 1248 -288 1136 -288
WIRE 1136 -272 1136 -288
WIRE 1248 -256 1248 -288
WIRE 1536 -256 1536 -336
WIRE -352 -192 -464 -192
WIRE -208 -192 -288 -192
WIRE 64 -192 -208 -192
WIRE 1088 -192 1056 -192
WIRE 1136 -160 1136 -176
WIRE 1248 -160 1248 -192
WIRE 1248 -160 1136 -160
WIRE 64 -128 64 -192
WIRE -208 -96 -208 -192
WIRE 800 -80 800 -240
WIRE 1136 -80 1136 -160
WIRE 1136 -80 800 -80
WIRE 1536 -80 1536 -192
WIRE 1536 -80 1136 -80
WIRE -464 -48 -464 -192
WIRE -464 -48 -896 -48
WIRE -416 -48 -464 -48
WIRE 1136 -48 1136 -80
WIRE -416 -32 -416 -48
WIRE -384 -32 -416 -32
WIRE -336 -32 -384 -32
WIRE 144 -32 -80 -32
WIRE -528 -16 -768 -16
WIRE -896 16 -896 -48
WIRE -768 32 -768 -16
WIRE -528 48 -528 -16
WIRE -416 48 -528 48
WIRE -336 48 -416 48
WIRE 64 48 64 -64
WIRE 64 48 -80 48
WIRE 176 48 64 48
WIRE 208 48 176 48
WIRE -336 128 -432 128
WIRE 144 128 -80 128
WIRE -432 192 -432 128
WIRE -432 192 -560 192
WIRE -896 208 -896 96
WIRE -768 208 -768 112
WIRE -768 208 -896 208
WIRE -208 240 -208 192
WIRE -768 256 -768 208
WIRE -560 320 -560 192
WIRE -560 432 -560 400
FLAG -208 240 0
FLAG -560 432 0
FLAG -768 256 0
FLAG -384 -32 Vcc
FLAG -416 48 QAc+
FLAG -432 192 QAc-
FLAG 144 -32 QA+
FLAG 144 128 QA-
FLAG 176 48 A
FLAG 1040 -432 QA+
FLAG 1056 -192 QA-
FLAG 1136 -336 A
FLAG 1136 -48 0
FLAG 1536 -336 B
SYMBOL PowerProducts\\LTC4446 -208 48 R0
SYMATTR InstName U1
SYMBOL voltage 800 -336 R0
WINDOW 123 0 0 Left 0
WINDOW 39 0 0 Left 0
SYMATTR InstName V1
SYMATTR Value 100
SYMBOL voltage -768 16 R0
WINDOW 3 -67 96 Left 2
WINDOW 123 0 0 Left 0
WINDOW 39 0 0 Left 0
SYMATTR InstName V2
SYMATTR Value PULSE(0 5 0 100n 10n 9.9u 20u)
SYMBOL voltage -896 0 R0
WINDOW 123 0 0 Left 0
WINDOW 39 0 0 Left 0
SYMATTR InstName V3
SYMATTR Value 15
SYMBOL voltage -560 304 R0
WINDOW 123 0 0 Left 0
WINDOW 39 0 0 Left 0
SYMATTR InstName V4
SYMATTR Value PULSE(0 5 10u 100n 10n 9.9u 20u)
SYMBOL diode -352 -176 R270
WINDOW 0 32 32 VTop 2
WINDOW 3 0 32 VBottom 2
SYMATTR InstName D1
SYMATTR Value RFN1L6S
SYMBOL cap 48 -128 R0
SYMATTR InstName C1
SYMATTR Value 10µ
SYMBOL nmos 1088 -512 R0
WINDOW 3 -51 108 Left 2
SYMATTR InstName M1
SYMATTR Value SPA11N60C3
SYMBOL nmos 1088 -272 R0
WINDOW 3 -46 147 Left 2
SYMATTR InstName M2
SYMATTR Value SPA11N60C3
SYMBOL ind 1312 -352 R90
WINDOW 0 5 56 VBottom 2
WINDOW 3 32 56 VTop 2
SYMATTR InstName L1
SYMATTR Value 1m
SYMBOL res 1440 -352 R90
WINDOW 0 0 56 VBottom 2
WINDOW 3 32 56 VTop 2
SYMATTR InstName R1
SYMATTR Value 20
SYMBOL cap 1520 -256 R0
SYMATTR InstName C2
SYMATTR Value 47µ
SYMBOL cap 1520 -480 R0
SYMATTR InstName C3
SYMATTR Value 47µ
SYMBOL diode 1264 -192 R180
WINDOW 0 24 64 Left 2
WINDOW 3 24 0 Left 2
SYMATTR InstName D2
SYMBOL diode 1264 -432 R180
WINDOW 0 24 64 Left 2
WINDOW 3 24 0 Left 2
SYMATTR InstName D3
TEXT 768 32 Left 2 !.tran 25m
