Version 4
SHEET 1 904 744
WIRE 48 112 -576 112
WIRE 464 112 48 112
WIRE 624 112 464 112
WIRE 464 128 464 112
WIRE 464 240 464 208
WIRE 624 240 624 112
WIRE -576 272 -576 112
WIRE 48 320 48 112
WIRE 464 336 464 320
WIRE 464 352 464 336
WIRE 624 352 624 304
WIRE 624 352 464 352
WIRE -16 368 -48 368
WIRE 464 368 464 352
WIRE -176 448 -208 448
WIRE -48 448 -48 368
WIRE -48 448 -96 448
WIRE 48 448 48 416
WIRE 224 448 48 448
WIRE 352 448 304 448
WIRE 416 448 352 448
WIRE -208 496 -208 448
WIRE 48 512 48 448
WIRE -48 560 -48 448
WIRE -16 560 -48 560
WIRE -576 640 -576 352
WIRE -208 640 -208 576
WIRE -208 640 -576 640
WIRE 48 640 48 608
WIRE 48 640 -208 640
WIRE 464 640 464 464
WIRE 464 640 48 640
FLAG 464 640 0
FLAG 352 448 Vgs
FLAG 464 336 Vds
SYMBOL nmos 416 368 R0
SYMATTR InstName M1
SYMATTR Value IRF530
SYMBOL res 320 432 R90
WINDOW 0 0 56 VBottom 2
WINDOW 3 32 56 VTop 2
SYMATTR InstName R2
SYMATTR Value 100
SYMBOL pnp -16 608 M180
SYMATTR InstName Q1
SYMATTR Value BC557B
SYMBOL npn -16 320 R0
SYMATTR InstName Q2
SYMATTR Value BC546B
SYMBOL voltage -208 480 R0
WINDOW 123 0 0 Left 2
WINDOW 39 0 0 Left 2
SYMATTR InstName V1
SYMATTR Value PULSE(0 10 0 0.001u 0.001u 20u 40u)
SYMBOL voltage -576 256 R0
WINDOW 123 0 0 Left 2
WINDOW 39 0 0 Left 2
SYMATTR InstName V2
SYMATTR Value 50
SYMBOL res -80 432 R90
WINDOW 0 0 56 VBottom 2
WINDOW 3 32 56 VTop 2
SYMATTR InstName R3
SYMATTR Value 1k
SYMBOL res 448 112 R0
SYMATTR InstName R1
SYMATTR Value 150
SYMBOL ind 448 224 R0
SYMATTR InstName L1
SYMATTR Value 220µ
SYMATTR SpiceLine Ipk=7.6 Rser=0.0105 Rpar=20724 Cpar=0 mfg="Coilcraft" pn="AGP4233-224"
SYMBOL diode 640 304 R180
WINDOW 0 24 64 Left 2
WINDOW 3 24 0 Left 2
SYMATTR InstName D1
SYMATTR Value MUR460
TEXT -264 728 Left 2 !.tran 0 0.0001 0 0.000001
