Version 4
SHEET 1 880 680
WIRE 192 160 112 160
WIRE 336 160 272 160
WIRE 416 160 336 160
WIRE 560 160 480 160
WIRE 720 160 560 160
WIRE 112 224 112 160
WIRE 720 224 720 160
WIRE 288 240 224 240
WIRE 336 240 336 160
WIRE 288 256 288 240
WIRE 560 256 560 160
WIRE 288 320 288 304
WIRE 288 320 224 320
WIRE 112 352 112 304
WIRE 336 352 336 320
WIRE 336 352 112 352
WIRE 560 352 560 320
WIRE 560 352 336 352
WIRE 720 352 720 304
WIRE 720 352 560 352
FLAG 560 352 0
SYMBOL diode 416 176 R270
WINDOW 0 32 32 VTop 2
WINDOW 3 0 32 VBottom 2
SYMATTR InstName D1
SYMATTR Value MUR460
SYMBOL cap 544 256 R0
SYMATTR InstName C1
SYMATTR Value 452n
SYMBOL ind 288 144 R90
WINDOW 0 5 56 VBottom 2
WINDOW 3 32 56 VTop 2
SYMATTR InstName L1
SYMATTR Value 330µ
SYMBOL res 704 208 R0
SYMATTR InstName R1
SYMATTR Value 250
SYMBOL voltage 112 208 R0
WINDOW 123 0 0 Left 0
WINDOW 39 0 0 Left 0
SYMATTR InstName V1
SYMATTR Value 3.3
SYMBOL sw 336 224 R0
SYMATTR InstName S1
SYMATTR Value MYSW
SYMBOL voltage 224 336 R180
WINDOW 3 -495 198 Left 2
WINDOW 123 0 0 Left 0
WINDOW 39 0 0 Left 0
SYMATTR Value PULSE(0 1 0 0.01u 0.01u 0.000005666 0.00001667)
SYMATTR InstName V3
TEXT -288 376 Left 2 !.tran 10m startup
TEXT 64 0 Left 2 !.model MYSW SW(Ron=0.0001 Roff=100Meg Vt=.5 Vh=-.4)
TEXT -192 160 Left 2 ;D=0.34
